<configuration>
  <input>
    <node-files value="net/rail.nodes.xml"/>
    <edge-files value="net/rail.edges.xml"/>
    <type-files value="net/rail.types.xml"/>
  </input>
  <output>
    <output-file value="net/rail.net.xml"/>
  </output>
  <processing>
    <railway.topology.all-defaults value="true"/>
  </processing>
</configuration>
