<configuration>
  <input>
    <net-file value="rail.net.xml"/>
    <route-files value="rail.routes.xml"/>
  </input>
  <time>
    <begin value="0"/>
    <end value="200"/>
  </time>
  <report>
    <no-step-log value="true"/>
  </report>
</configuration>
