<configuration>
  <input>
    <node-files value="rail.nodes.xml"/>
    <edge-files value="rail.edges.xml"/>
    <type-files value="rail.types.xml"/>
  </input>
  <output>
    <output-file value="rail.net.xml"/>
  </output>
</configuration>
